Tarea_psat_04_04_17.m
                                                             
Bus.con = [
%   1   2   3       4
%   Bus kVb pu(mag) rad            
    1   230 1.00    0;
    2   230 1.00    0;
    3   230 1.00    0;
    4   230 1.02    0];

SW.con = [
%   1   2   3   4       5
%   Bus MVA kVb pu(mag) pu(ref)                                 
    1   100 230 1.00    0];

PV.con = [
%   1   2   3   4       5
%   Bus MVA kVb pu(Pg)  pu(mag)  
    4   100 230 3.18	1.02];

PQ.con = [
%   1   2   3   4       5
%   Bus MVA kVb pu(PL)  pu(QL)
    1	100	230 0.50    0.3099;
    2	100	230 1.70    1.0535;
    3	100	230 2.00    1.2394;
	4   100 230 0.80    0.4958];

Lines.con = [
%   1   2   3   4   5   6       7       8       
%   De  A   MVA kV  Hz  R       X       B
    1   2   100 230 60  0.01008 0.05040 0.05125*2;
    1   3   100 230 60  0.00744 0.03720 0.03875*2;
    2   4   100 230 60  0.00744 0.03720 0.03875*2;
    3   4   100 230 60  0.01272 0.06360 0.06375*2];

Varname.bus = {
  ' Bus1'; ' Bus2'; ' Bus3'; ' Bus4'};